<?xml version="1.0" encoding="UTF-8"?>

<!-- generated on 2025-09-09 19:11:50.090698 by osmWebWizard.py v1_24_0+0000-b72eb3fabc8
<configuration>
    <net-file value="C:\SIH\2025-09-09-19-11-05\osm.net.xml.gz"/>
    <output-trip-file value="C:\SIH\2025-09-09-19-11-05\osm.passenger.trips.xml"/>
    <route-file value="C:\SIH\2025-09-09-19-11-05\osm.passenger.rou.xml"/>
    <prefix value="veh"/>
    <trip-attributes value="departLane=&quot;best&quot;"/>
    <fringe-start-attributes value="departSpeed=&quot;max&quot;"/>
    <vehicle-class value="passenger"/>
    <lanes value="True"/>
    <fringe-factor value="5"/>
    <allow-fringe.min-length value="1000.0"/>
    <edge-permission value="passenger"/>
    <via-edge-types value="highway.motorway,highway.motorway_link,highway.trunk_link,highway.primary_link,highway.secondary_link,highway.tertiary_link"/>
    <min-distance value="300.0"/>
    <min-distance.fringe value="10.0"/>
    <remove-loops value="True"/>
    <insertion-density value="12.0"/>
</configuration>
-->

<routes xmlns:xsi="http://www.w3.org/2001/XMLSchema-instance" xsi:noNamespaceSchemaLocation="http://sumo.dlr.de/xsd/routes_file.xsd">
    <vType id="veh_passenger" vClass="passenger"/>
    <trip id="veh0" depart="0.00" from="215382433" to="-1176206159#1" departLane="best" type="veh_passenger" departSpeed="max"/>
    <trip id="veh1" depart="2.49" from="31215590#2" to="31152970#2" departLane="best" type="veh_passenger"/>
    <trip id="veh2" depart="4.98" from="1011936102#0" to="-1189090171#0" departLane="best" type="veh_passenger" departSpeed="max"/>
    <trip id="veh3" depart="7.46" from="-22859525#5" to="1304384735" departLane="best" type="veh_passenger" departSpeed="max"/>
    <trip id="veh4" depart="9.95" from="-1141867884" to="-39530455" departLane="best" type="veh_passenger"/>
    <trip id="veh5" depart="12.44" from="39530455" to="-1134587608#1" departLane="best" type="veh_passenger" departSpeed="max"/>
    <trip id="veh6" depart="14.93" from="39480556#0" to="31194648" departLane="best" type="veh_passenger" departSpeed="max"/>
    <trip id="veh7" depart="17.41" from="554777301#0" to="1090505269#0" departLane="best" type="veh_passenger"/>
    <trip id="veh8" depart="19.90" from="39480556#0" to="31217190" departLane="best" type="veh_passenger" departSpeed="max"/>
    <trip id="veh9" depart="22.39" from="1237797036#0" to="700820060#0" departLane="best" type="veh_passenger"/>
    <trip id="veh10" depart="24.88" from="-553214386" to="1421512382" departLane="best" type="veh_passenger"/>
    <trip id="veh11" depart="27.37" from="430599323#0" to="22859353#1" departLane="best" type="veh_passenger"/>
    <trip id="veh12" depart="29.85" from="437410114" to="186760577#0" departLane="best" type="veh_passenger" departSpeed="max"/>
    <trip id="veh13" depart="32.34" from="31193694#3" to="-1303246109" departLane="best" type="veh_passenger"/>
    <trip id="veh14" depart="34.83" from="-1253903377#1" to="-437408653" departLane="best" type="veh_passenger"/>
    <trip id="veh15" depart="37.32" from="215382430" to="1136964927#1" departLane="best" type="veh_passenger" departSpeed="max"/>
    <trip id="veh16" depart="39.80" from="-49051151" to="-423781373#4" departLane="best" type="veh_passenger"/>
    <trip id="veh17" depart="42.29" from="-31217240#1" to="553669831#0" departLane="best" type="veh_passenger" departSpeed="max"/>
    <trip id="veh18" depart="44.78" from="-206994208#2" to="31217188" departLane="best" type="veh_passenger"/>
    <trip id="veh19" depart="47.27" from="-186760577#2" to="1141867890#0" departLane="best" type="veh_passenger"/>
    <trip id="veh20" depart="49.76" from="1293641193#3" to="31193315#4" departLane="best" type="veh_passenger"/>
    <trip id="veh21" depart="52.24" from="-39360297" to="-49051151" departLane="best" type="veh_passenger"/>
    <trip id="veh22" depart="54.73" from="552505786#3" to="1237797035" departLane="best" type="veh_passenger"/>
    <trip id="veh23" depart="57.22" from="-31217240#1" to="-437410115" departLane="best" type="veh_passenger" departSpeed="max"/>
    <trip id="veh24" depart="59.71" from="1293641198#1" to="-438519924" departLane="best" type="veh_passenger"/>
    <trip id="veh25" depart="62.19" from="929525132#0" to="1304442753#1" departLane="best" type="veh_passenger" departSpeed="max"/>
    <trip id="veh26" depart="64.68" from="-1317387793" to="22859469" departLane="best" type="veh_passenger" departSpeed="max"/>
    <trip id="veh27" depart="67.17" from="-1189350814" to="1141867890#5" departLane="best" type="veh_passenger" departSpeed="max"/>
    <trip id="veh28" depart="69.66" from="929525132#0" to="1343922581#3" departLane="best" type="veh_passenger" departSpeed="max"/>
    <trip id="veh29" depart="72.15" from="686086899" to="438519919#0" departLane="best" type="veh_passenger"/>
    <trip id="veh30" depart="74.63" from="31151962#2" to="1349519282" departLane="best" type="veh_passenger"/>
    <trip id="veh31" depart="77.12" from="-1317387793" to="1201664576" departLane="best" type="veh_passenger" departSpeed="max"/>
    <trip id="veh32" depart="79.61" from="1101765161#0" to="623418797" departLane="best" type="veh_passenger" departSpeed="max"/>
    <trip id="veh33" depart="82.10" from="438519923#0" to="-438775868" departLane="best" type="veh_passenger" departSpeed="max"/>
    <trip id="veh34" depart="84.58" from="552505786#1" to="438519926" departLane="best" type="veh_passenger"/>
    <trip id="veh35" depart="87.07" from="186764011#3" to="-31217188" departLane="best" type="veh_passenger"/>
    <trip id="veh36" depart="89.56" from="31290145#1" to="1370700242" departLane="best" type="veh_passenger"/>
    <trip id="veh37" depart="92.05" from="366913569" to="1343922581#4" departLane="best" type="veh_passenger"/>
    <trip id="veh38" depart="94.54" from="-102400972#1" to="1053511374#2" departLane="best" type="veh_passenger" departSpeed="max"/>
    <trip id="veh39" depart="97.02" from="-1134587608#0" to="553233665#2" departLane="best" type="veh_passenger"/>
    <trip id="veh40" depart="99.51" from="438519924" to="431825049#5" departLane="best" type="veh_passenger" departSpeed="max"/>
    <trip id="veh41" depart="102.00" from="-39357081#1" to="-1304442754" departLane="best" type="veh_passenger"/>
    <trip id="veh42" depart="104.49" from="438519924" to="555601731" departLane="best" type="veh_passenger" departSpeed="max"/>
    <trip id="veh43" depart="106.97" from="-1303246109" to="1293641200#2" departLane="best" type="veh_passenger"/>
    <trip id="veh44" depart="109.46" from="1140834844#3" to="1421512373" departLane="best" type="veh_passenger"/>
    <trip id="veh45" depart="111.95" from="-31217240#1" to="439849605#1" departLane="best" type="veh_passenger" departSpeed="max"/>
    <trip id="veh46" depart="114.44" from="1011936102#0" to="-423781373#4" departLane="best" type="veh_passenger" departSpeed="max"/>
    <trip id="veh47" depart="116.93" from="1237797039#2" to="31217192" departLane="best" type="veh_passenger"/>
    <trip id="veh48" depart="119.41" from="925480135#1" to="257411159#3" departLane="best" type="veh_passenger"/>
    <trip id="veh49" depart="121.90" from="1053511374#18" to="1317387797" departLane="best" type="veh_passenger"/>
    <trip id="veh50" depart="124.39" from="-31151528#1" to="-434887983" departLane="best" type="veh_passenger" departSpeed="max"/>
    <trip id="veh51" depart="126.88" from="-1192570619" to="22859505" departLane="best" type="veh_passenger" departSpeed="max"/>
    <trip id="veh52" depart="129.36" from="437410113" to="-152629609#1" departLane="best" type="veh_passenger" departSpeed="max"/>
    <trip id="veh53" depart="131.85" from="-31184695#2" to="31152925" departLane="best" type="veh_passenger"/>
    <trip id="veh54" depart="134.34" from="553233662#5" to="151357385#2" departLane="best" type="veh_passenger"/>
    <trip id="veh55" depart="136.83" from="1140834844#1" to="376993355" departLane="best" type="veh_passenger"/>
    <trip id="veh56" depart="139.32" from="39480556#0" to="-39357306#1" departLane="best" type="veh_passenger" departSpeed="max"/>
    <trip id="veh57" depart="141.80" from="1011936102#0" to="1253903377#0" departLane="best" type="veh_passenger" departSpeed="max"/>
    <trip id="veh58" depart="144.29" from="31214151#0" to="31152925" departLane="best" type="veh_passenger" departSpeed="max"/>
    <trip id="veh59" depart="146.78" from="776455972" to="-215382413#1" departLane="best" type="veh_passenger" departSpeed="max"/>
    <trip id="veh60" depart="149.27" from="437410114" to="-438515747#0" departLane="best" type="veh_passenger" departSpeed="max"/>
    <trip id="veh61" depart="151.75" from="-215059310#2" to="1235236205#0" departLane="best" type="veh_passenger"/>
    <trip id="veh62" depart="154.24" from="-31202210#9" to="553233662#5" departLane="best" type="veh_passenger"/>
    <trip id="veh63" depart="156.73" from="1053511384" to="438519919#1" departLane="best" type="veh_passenger"/>
    <trip id="veh64" depart="159.22" from="1253924952#0" to="-1303253946" departLane="best" type="veh_passenger" departSpeed="max"/>
    <trip id="veh65" depart="161.71" from="929525132#1" to="434887982#1" departLane="best" type="veh_passenger"/>
    <trip id="veh66" depart="164.19" from="669045342#2" to="553233662#9" departLane="best" type="veh_passenger"/>
    <trip id="veh67" depart="166.68" from="1145063879#0" to="-430347012#3" departLane="best" type="veh_passenger"/>
    <trip id="veh68" depart="169.17" from="-553259078" to="787105652" departLane="best" type="veh_passenger"/>
    <trip id="veh69" depart="171.66" from="-31217240#1" to="376993355" departLane="best" type="veh_passenger" departSpeed="max"/>
    <trip id="veh70" depart="174.14" from="1293641193#0" to="31214579#0" departLane="best" type="veh_passenger"/>
    <trip id="veh71" depart="176.63" from="669045342#1" to="186760577#9" departLane="best" type="veh_passenger"/>
    <trip id="veh72" depart="179.12" from="1238867120" to="31233580#1" departLane="best" type="veh_passenger" departSpeed="max"/>
    <trip id="veh73" depart="181.61" from="-1188574604" to="202565689" departLane="best" type="veh_passenger"/>
    <trip id="veh74" depart="184.10" from="1171063692#4" to="437410120#0" departLane="best" type="veh_passenger"/>
    <trip id="veh75" depart="186.58" from="-1253903377#2" to="-31939302#1" departLane="best" type="veh_passenger" departSpeed="max"/>
    <trip id="veh76" depart="189.07" from="1375103128#1" to="31152959" departLane="best" type="veh_passenger"/>
    <trip id="veh77" depart="191.56" from="1375103128#0" to="22859353#3" departLane="best" type="veh_passenger"/>
    <trip id="veh78" depart="194.05" from="-926943920" to="202565689" departLane="best" type="veh_passenger"/>
    <trip id="veh79" depart="196.53" from="-31184695#5" to="1155708403#3" departLane="best" type="veh_passenger"/>
    <trip id="veh80" depart="199.02" from="-39360507#0" to="31290145#2" departLane="best" type="veh_passenger"/>
    <trip id="veh81" depart="201.51" from="-31217240#1" to="553259078" departLane="best" type="veh_passenger" departSpeed="max"/>
    <trip id="veh82" depart="204.00" from="-49051149" to="-31217218#3" departLane="best" type="veh_passenger"/>
    <trip id="veh83" depart="206.49" from="431750135#0" to="31201734#1" departLane="best" type="veh_passenger" departSpeed="max"/>
    <trip id="veh84" depart="208.97" from="202565689" to="787105652" departLane="best" type="veh_passenger"/>
    <trip id="veh85" depart="211.46" from="22860763" to="553669834#0" departLane="best" type="veh_passenger" departSpeed="max"/>
    <trip id="veh86" depart="213.95" from="-1317387781" to="1421512382" departLane="best" type="veh_passenger" departSpeed="max"/>
    <trip id="veh87" depart="216.44" from="-31290145#1" to="215059313#1" departLane="best" type="veh_passenger"/>
    <trip id="veh88" depart="218.92" from="215382416#0" to="-438775868" departLane="best" type="veh_passenger"/>
    <trip id="veh89" depart="221.41" from="1145066141" to="552505786#5" departLane="best" type="veh_passenger"/>
    <trip id="veh90" depart="223.90" from="1011936102#0" to="-553181888#4" departLane="best" type="veh_passenger" departSpeed="max"/>
    <trip id="veh91" depart="226.39" from="-1042704669" to="376993299" departLane="best" type="veh_passenger"/>
    <trip id="veh92" depart="228.88" from="215382430" to="-438519924" departLane="best" type="veh_passenger" departSpeed="max"/>
    <trip id="veh93" depart="231.36" from="1011936103" to="-1134587609#1" departLane="best" type="veh_passenger"/>
    <trip id="veh94" depart="233.85" from="504132931" to="1394149914" departLane="best" type="veh_passenger" departSpeed="max"/>
    <trip id="veh95" depart="236.34" from="431750135#0" to="186764172#2" departLane="best" type="veh_passenger" departSpeed="max"/>
    <trip id="veh96" depart="238.83" from="-39357306#3" to="552055265#2" departLane="best" type="veh_passenger"/>
    <trip id="veh97" depart="241.31" from="39358944" to="438519919#0" departLane="best" type="veh_passenger"/>
    <trip id="veh98" depart="243.80" from="48803920" to="-423781373#4" departLane="best" type="veh_passenger" departSpeed="max"/>
    <trip id="veh99" depart="246.29" from="-31202210#9" to="-215382430" departLane="best" type="veh_passenger"/>
    <trip id="veh100" depart="248.78" from="-701592208" to="22859353#4" departLane="best" type="veh_passenger" departSpeed="max"/>
    <trip id="veh101" depart="251.27" from="-1136967155#1" to="31217240#0" departLane="best" type="veh_passenger"/>
    <trip id="veh102" depart="253.75" from="39360566" to="438519923#1" departLane="best" type="veh_passenger"/>
    <trip id="veh103" depart="256.24" from="39679626" to="-49051147#1" departLane="best" type="veh_passenger"/>
    <trip id="veh104" depart="258.73" from="39357230#4" to="-215382492" departLane="best" type="veh_passenger"/>
    <trip id="veh105" depart="261.22" from="438519921" to="438517567" departLane="best" type="veh_passenger" departSpeed="max"/>
    <trip id="veh106" depart="263.70" from="1134587608#1" to="-787467841#0" departLane="best" type="veh_passenger"/>
    <trip id="veh107" depart="266.19" from="-1134587610" to="-39358664#2" departLane="best" type="veh_passenger" departSpeed="max"/>
    <trip id="veh108" depart="268.68" from="-430599323#1" to="438519923#1" departLane="best" type="veh_passenger"/>
    <trip id="veh109" depart="271.17" from="623418797" to="-553259078" departLane="best" type="veh_passenger"/>
    <trip id="veh110" depart="273.66" from="215382492" to="1170043407#1" departLane="best" type="veh_passenger" departSpeed="max"/>
    <trip id="veh111" depart="276.14" from="776137557#1" to="1349519282" departLane="best" type="veh_passenger"/>
    <trip id="veh112" depart="278.63" from="555601734#0" to="-438775868" departLane="best" type="veh_passenger"/>
    <trip id="veh113" depart="281.12" from="31214151#0" to="1011936103" departLane="best" type="veh_passenger" departSpeed="max"/>
    <trip id="veh114" depart="283.61" from="186760577#3" to="1317387781" departLane="best" type="veh_passenger"/>
    <trip id="veh115" depart="286.09" from="-554777301#2" to="152632012#0" departLane="best" type="veh_passenger"/>
    <trip id="veh116" depart="288.58" from="-31214579#3" to="31202210#0" departLane="best" type="veh_passenger" departSpeed="max"/>
    <trip id="veh117" depart="291.07" from="-102400972#1" to="553233662#7" departLane="best" type="veh_passenger" departSpeed="max"/>
    <trip id="veh118" depart="293.56" from="1237797039#0" to="31214579#0" departLane="best" type="veh_passenger"/>
    <trip id="veh119" depart="296.05" from="31217196" to="31152925" departLane="best" type="veh_passenger"/>
    <trip id="veh120" depart="298.53" from="22860763" to="1081349387#2" departLane="best" type="veh_passenger" departSpeed="max"/>
    <trip id="veh121" depart="301.02" from="-39359408" to="437250545" departLane="best" type="veh_passenger"/>
    <trip id="veh122" depart="303.51" from="31202210#0" to="-776455972" departLane="best" type="veh_passenger"/>
    <trip id="veh123" depart="306.00" from="-39358388#1" to="1175311666" departLane="best" type="veh_passenger"/>
    <trip id="veh124" depart="308.48" from="-1370700242" to="1188574604" departLane="best" type="veh_passenger" departSpeed="max"/>
    <trip id="veh125" depart="310.97" from="553233665#0" to="31153006#1" departLane="best" type="veh_passenger"/>
    <trip id="veh126" depart="313.46" from="-376993337#1" to="1420711397" departLane="best" type="veh_passenger" departSpeed="max"/>
    <trip id="veh127" depart="315.95" from="1053511382#0" to="-430347012#3" departLane="best" type="veh_passenger"/>
    <trip id="veh128" depart="318.44" from="1140834844#1" to="552505786#1" departLane="best" type="veh_passenger"/>
    <trip id="veh129" depart="320.92" from="39358944" to="-31233580#2" departLane="best" type="veh_passenger"/>
    <trip id="veh130" depart="323.41" from="-1303193816#0" to="1317387793" departLane="best" type="veh_passenger"/>
    <trip id="veh131" depart="325.90" from="215382413#0" to="1089386112#2" departLane="best" type="veh_passenger"/>
    <trip id="veh132" depart="328.39" from="-215382428#1" to="-1176206159#0" departLane="best" type="veh_passenger" departSpeed="max"/>
    <trip id="veh133" depart="330.87" from="-31201838" to="1289185528#1" departLane="best" type="veh_passenger" departSpeed="max"/>
    <trip id="veh134" depart="333.36" from="1152596450" to="-437410114" departLane="best" type="veh_passenger"/>
    <trip id="veh135" depart="335.85" from="-1304442754" to="1189090171#1" departLane="best" type="veh_passenger"/>
    <trip id="veh136" depart="338.34" from="123266914#1" to="-1303253946" departLane="best" type="veh_passenger"/>
    <trip id="veh137" depart="340.83" from="-31202210#8" to="437250545" departLane="best" type="veh_passenger"/>
    <trip id="veh138" depart="343.31" from="1104643420#0" to="39358744#1" departLane="best" type="veh_passenger"/>
    <trip id="veh139" depart="345.80" from="257411171#0" to="787105652" departLane="best" type="veh_passenger"/>
    <trip id="veh140" depart="348.29" from="1375103129#0" to="571791047#0" departLane="best" type="veh_passenger"/>
    <trip id="veh141" depart="350.78" from="31201787#2" to="1304384010" departLane="best" type="veh_passenger"/>
    <trip id="veh142" depart="353.26" from="431051299#0" to="1420711397" departLane="best" type="veh_passenger"/>
    <trip id="veh143" depart="355.75" from="48803920" to="31217338#1" departLane="best" type="veh_passenger" departSpeed="max"/>
    <trip id="veh144" depart="358.24" from="1140834844#2" to="-438519923#0" departLane="best" type="veh_passenger"/>
    <trip id="veh145" depart="360.73" from="-31202210#5" to="22859591" departLane="best" type="veh_passenger"/>
    <trip id="veh146" depart="363.22" from="31290782" to="1329046840" departLane="best" type="veh_passenger"/>
    <trip id="veh147" depart="365.70" from="215059310#1" to="-553181888#15" departLane="best" type="veh_passenger"/>
    <trip id="veh148" depart="368.19" from="-1236536845" to="-554777301#4" departLane="best" type="veh_passenger" departSpeed="max"/>
    <trip id="veh149" depart="370.68" from="-31290145#0" to="102400972#1" departLane="best" type="veh_passenger"/>
    <trip id="veh150" depart="373.17" from="1237797041#0" to="-31201734#2" departLane="best" type="veh_passenger"/>
    <trip id="veh151" depart="375.65" from="-31151528#1" to="31193841#2" departLane="best" type="veh_passenger" departSpeed="max"/>
    <trip id="veh152" depart="378.14" from="31193841#1" to="-1343952868" departLane="best" type="veh_passenger"/>
    <trip id="veh153" depart="380.63" from="-701592208" to="1375103128#1" departLane="best" type="veh_passenger" departSpeed="max"/>
    <trip id="veh154" depart="383.12" from="-929525132#2" to="552505786#5" departLane="best" type="veh_passenger"/>
    <trip id="veh155" depart="385.61" from="437408654" to="31939302#2" departLane="best" type="veh_passenger" departSpeed="max"/>
    <trip id="veh156" depart="388.09" from="-553669833#1" to="-1134587608#0" departLane="best" type="veh_passenger"/>
    <trip id="veh157" depart="390.58" from="-437410120#0" to="31290145#2" departLane="best" type="veh_passenger"/>
    <trip id="veh158" depart="393.07" from="437408653" to="623418796" departLane="best" type="veh_passenger" departSpeed="max"/>
    <trip id="veh159" depart="395.56" from="-888799318" to="31233580#0" departLane="best" type="veh_passenger"/>
    <trip id="veh160" depart="398.04" from="1253903377#1" to="215059302" departLane="best" type="veh_passenger"/>
    <trip id="veh161" depart="400.53" from="1042704669" to="-1189090171#0" departLane="best" type="veh_passenger"/>
    <trip id="veh162" depart="403.02" from="215059266#0" to="-1189082259#1" departLane="best" type="veh_passenger"/>
    <trip id="veh163" depart="405.51" from="-1421512373" to="1237797037" departLane="best" type="veh_passenger" departSpeed="max"/>
    <trip id="veh164" depart="408.00" from="-1176206159#1" to="1141867890#0" departLane="best" type="veh_passenger"/>
    <trip id="veh165" depart="410.48" from="31233580#3" to="1141867890#0" departLane="best" type="veh_passenger"/>
    <trip id="veh166" depart="412.97" from="31217338#0" to="431831812" departLane="best" type="veh_passenger"/>
    <trip id="veh167" depart="415.46" from="-31202420#7" to="-215059220#0" departLane="best" type="veh_passenger"/>
    <trip id="veh168" depart="417.95" from="-1116442004" to="1370700242" departLane="best" type="veh_passenger" departSpeed="max"/>
    <trip id="veh169" depart="420.43" from="940670597#0" to="1112181951" departLane="best" type="veh_passenger"/>
    <trip id="veh170" depart="422.92" from="553669832#0" to="-39530455" departLane="best" type="veh_passenger"/>
    <trip id="veh171" depart="425.41" from="-1134587608#1" to="-31216512" departLane="best" type="veh_passenger"/>
    <trip id="veh172" depart="427.90" from="-1349519282" to="31152925" departLane="best" type="veh_passenger" departSpeed="max"/>
    <trip id="veh173" depart="430.39" from="1293641200#0" to="-431825049#6" departLane="best" type="veh_passenger"/>
    <trip id="veh174" depart="432.87" from="31193373#0" to="376993278#0" departLane="best" type="veh_passenger"/>
    <trip id="veh175" depart="435.36" from="-186764172#2" to="215059317#0" departLane="best" type="veh_passenger"/>
    <trip id="veh176" depart="437.85" from="40071049" to="691566876" departLane="best" type="veh_passenger"/>
    <trip id="veh177" depart="440.34" from="-1317387781" to="-1188574604" departLane="best" type="veh_passenger" departSpeed="max"/>
    <trip id="veh178" depart="442.82" from="-39358664#3" to="31153006#1" departLane="best" type="veh_passenger" departSpeed="max"/>
    <trip id="veh179" depart="445.31" from="554777301#2" to="1155708403#3" departLane="best" type="veh_passenger"/>
    <trip id="veh180" depart="447.80" from="31201708#0" to="-186764011#3" departLane="best" type="veh_passenger"/>
    <trip id="veh181" depart="450.29" from="31153006#1" to="22859469" departLane="best" type="veh_passenger"/>
    <trip id="veh182" depart="452.78" from="39356834#3" to="1105484149" departLane="best" type="veh_passenger"/>
    <trip id="veh183" depart="455.26" from="1188574604" to="1090505269#2" departLane="best" type="veh_passenger"/>
    <trip id="veh184" depart="457.75" from="215382430" to="431051299#2" departLane="best" type="veh_passenger" departSpeed="max"/>
    <trip id="veh185" depart="460.24" from="-31233580#2" to="39360507#0" departLane="best" type="veh_passenger"/>
    <trip id="veh186" depart="462.73" from="1237797039#0" to="1293641198#4" departLane="best" type="veh_passenger"/>
    <trip id="veh187" depart="465.21" from="1042704669" to="31217202#0" departLane="best" type="veh_passenger"/>
    <trip id="veh188" depart="467.70" from="438775868" to="-437410114" departLane="best" type="veh_passenger" departSpeed="max"/>
    <trip id="veh189" depart="470.19" from="1134587609#2" to="215382415#0" departLane="best" type="veh_passenger"/>
    <trip id="veh190" depart="472.68" from="-553259078" to="-1189090171#0" departLane="best" type="veh_passenger"/>
    <trip id="veh191" depart="475.17" from="31193373#4" to="-553181888#4" departLane="best" type="veh_passenger"/>
    <trip id="veh192" depart="477.65" from="-1303246109" to="31215278#1" departLane="best" type="veh_passenger"/>
    <trip id="veh193" depart="480.14" from="1145066141" to="31938939#0" departLane="best" type="veh_passenger"/>
    <trip id="veh194" depart="482.63" from="31153006#1" to="22859766#2" departLane="best" type="veh_passenger"/>
    <trip id="veh195" depart="485.12" from="1148393954#0" to="39357306#0" departLane="best" type="veh_passenger" departSpeed="max"/>
    <trip id="veh196" depart="487.60" from="31184684" to="-78977344" departLane="best" type="veh_passenger"/>
    <trip id="veh197" depart="490.09" from="1336425996" to="1253924954#1" departLane="best" type="veh_passenger"/>
    <trip id="veh198" depart="492.58" from="31217218#3" to="1081349387#3" departLane="best" type="veh_passenger"/>
    <trip id="veh199" depart="495.07" from="31193694#0" to="-545183569#0" departLane="best" type="veh_passenger"/>
    <trip id="veh200" depart="497.56" from="1237797036#0" to="31938998#3" departLane="best" type="veh_passenger"/>
    <trip id="veh201" depart="500.04" from="-215059266#1" to="-431750135#1" departLane="best" type="veh_passenger"/>
    <trip id="veh202" depart="502.53" from="1145063878#0" to="31215590#1" departLane="best" type="veh_passenger"/>
    <trip id="veh203" depart="505.02" from="-31938998#1" to="-215382430" departLane="best" type="veh_passenger"/>
    <trip id="veh204" depart="507.51" from="1237797031" to="-553181888#13" departLane="best" type="veh_passenger"/>
    <trip id="veh205" depart="509.99" from="438519920#0" to="1303253945#1" departLane="best" type="veh_passenger" departSpeed="max"/>
    <trip id="veh206" depart="512.48" from="438519921" to="151357385#5" departLane="best" type="veh_passenger" departSpeed="max"/>
    <trip id="veh207" depart="514.97" from="1136967155#0" to="123266914#1" departLane="best" type="veh_passenger"/>
    <trip id="veh208" depart="517.46" from="-215059266#0" to="-1303253946" departLane="best" type="veh_passenger"/>
    <trip id="veh209" depart="519.95" from="553233665#2" to="1293641193#2" departLane="best" type="veh_passenger"/>
    <trip id="veh210" depart="522.43" from="-1187980673" to="-31214151#0" departLane="best" type="veh_passenger" departSpeed="max"/>
    <trip id="veh211" depart="524.92" from="1293641198#5" to="-787467841#0" departLane="best" type="veh_passenger"/>
    <trip id="veh212" depart="527.41" from="31290151#2" to="215059315#1" departLane="best" type="veh_passenger"/>
    <trip id="veh213" depart="529.90" from="123266914#8" to="1235236205#4" departLane="best" type="veh_passenger"/>
    <trip id="veh214" depart="532.38" from="1053511383" to="438517568" departLane="best" type="veh_passenger"/>
    <trip id="veh215" depart="534.87" from="783730705#4" to="-787467841#0" departLane="best" type="veh_passenger"/>
    <trip id="veh216" depart="537.36" from="31216933#2" to="555601733#0" departLane="best" type="veh_passenger"/>
    <trip id="veh217" depart="539.85" from="22860205#2" to="-31217218#2" departLane="best" type="veh_passenger"/>
    <trip id="veh218" depart="542.34" from="-102400972#1" to="1235236205#4" departLane="best" type="veh_passenger" departSpeed="max"/>
    <trip id="veh219" depart="544.82" from="-31151528#1" to="31201838" departLane="best" type="veh_passenger" departSpeed="max"/>
    <trip id="veh220" depart="547.31" from="31193694#1" to="1236536845" departLane="best" type="veh_passenger"/>
    <trip id="veh221" depart="549.80" from="31152936#0" to="553233662#6" departLane="best" type="veh_passenger"/>
    <trip id="veh222" depart="552.29" from="22860205#3" to="553428191#0" departLane="best" type="veh_passenger"/>
    <trip id="veh223" depart="554.77" from="1011936102#0" to="1375103129#2" departLane="best" type="veh_passenger" departSpeed="max"/>
    <trip id="veh224" depart="557.26" from="22859469" to="553181888#11" departLane="best" type="veh_passenger"/>
    <trip id="veh225" depart="559.75" from="430347012#0" to="-152632012#3" departLane="best" type="veh_passenger"/>
    <trip id="veh226" depart="562.24" from="-186764011#2" to="-888799318" departLane="best" type="veh_passenger"/>
    <trip id="veh227" depart="564.72" from="-376993278#1" to="-257411159#8" departLane="best" type="veh_passenger"/>
    <trip id="veh228" depart="567.21" from="31152970#0" to="31196297#0" departLane="best" type="veh_passenger"/>
    <trip id="veh229" depart="569.70" from="553233665#3" to="1303253949" departLane="best" type="veh_passenger"/>
    <trip id="veh230" depart="572.19" from="1149808803" to="-202918264#5" departLane="best" type="veh_passenger"/>
    <trip id="veh231" depart="574.68" from="-1175311666" to="1190952322" departLane="best" type="veh_passenger" departSpeed="max"/>
    <trip id="veh232" depart="577.16" from="-40941000" to="-438519919#0" departLane="best" type="veh_passenger" departSpeed="max"/>
    <trip id="veh233" depart="579.65" from="431825049#4" to="152629609#0" departLane="best" type="veh_passenger"/>
    <trip id="veh234" depart="582.14" from="553669833#1" to="940670597#0" departLane="best" type="veh_passenger"/>
    <trip id="veh235" depart="584.63" from="-1175311666" to="31290304" departLane="best" type="veh_passenger" departSpeed="max"/>
    <trip id="veh236" depart="587.11" from="1137489454" to="257411159#8" departLane="best" type="veh_passenger"/>
    <trip id="veh237" depart="589.60" from="552505786#4" to="-31938998#0" departLane="best" type="veh_passenger"/>